powerflow/Codes/PF_Formulation/resultados_csv/500bus__16_qv__bus.csv
ID_Barra,Tipo_Barra,Vm_pu,Va_graus,Pg_pu,Qg_pu,Pd_pu,Qd_pu,Slack_QLIM,Slack_VLIM
1,1,1.0117495473251321,-8.64931171803647,0.0,0.0,0.0,0.0,0.0,-1.8417763877554747e-5
2,1,1.011169768639358,-8.721177943650096,0.0,0.0,0.428,0.11410000000000001,0.0,-1.84284604496206e-5
3,1,1.0038066459999806,-9.959033298439723,0.0,0.0,0.0,0.0,0.0,-0.00011968672261026854
4,1,1.0016376601275643,-10.211144231337864,0.0,0.0,1.327,0.3538,0.0,-0.00011998783522626782
5,1,1.0144652748111236,0.8600676511611556,0.0,0.0,0.0,0.0,0.0,-1.4341283833864456e-5
6,1,1.014417611279552,0.8539586988447738,0.0,0.0,0.03213,0.00857,0.0,-1.4342006587278016e-5
7,1,1.0345779171034026,-4.81113932008522,0.0,0.0,0.0,0.0,0.0,-2.205268744318469e-5
8,1,1.0256169344667674,-6.589145363481692,0.0,0.0,0.0,0.0,0.0,-5.8590473970295066e-5
9,2,1.043356069168865,-2.024868065403849,7.718,1.464280377020363,0.0,0.0,0.0,0.0
10,1,1.0166338458847588,-11.903423302284656,0.0,0.0,0.0,0.0,0.0,2.0613290668009475e-5
11,1,1.0165971021628453,-11.907569737997918,0.0,0.0,0.02472,0.00659,0.0,2.0614485310609234e-5
12,1,0.9945416336273246,-12.755068819529054,0.0,0.0,0.0,0.0,0.0,0.000330849021761703
13,1,0.9939945623675677,-12.818978065140811,0.0,0.0,0.3716,0.09910000000000001,0.0,0.00033107117539249453
14,1,1.0274739890552227,-2.509100879181698,0.0,0.0,0.0,0.0,0.0,5.1159106289997016e-5
15,1,1.0209527509299308,-4.918787512602849,0.0,0.0,0.0,0.0,0.0,0.0001948063161314212
16,2,1.0356154623966534,0.3562403766756658,4.444,0.6916353251240295,0.0,0.0,0.0,0.0
17,3,1.0326751744380744,0.0,6.476809247279932,0.746042330970663,0.0,0.0,0.0,0.0
18,2,1.0389672555774776,1.802688904170792,1.5759999999999998,0.24885662149236967,0.0,0.0,0.0,0.0
19,1,1.0173566831663536,-12.217876250046732,0.0,0.0,0.0,0.0,0.0,2.9905579150278657e-5
20,1,1.0172861341749673,-12.227283403378154,0.0,0.0,0.045419999999999995,0.012110000000000001,0.0,2.9908706635199918e-5
21,1,1.008770558008674,-10.236448083567602,0.0,0.0,0.0,0.0,0.0,1.8961592132808792e-6
22,1,1.006643114524754,-10.489613092290847,0.0,0.0,1.4869999999999999,0.39649999999999996,0.0,1.911392765846157e-6
23,1,1.0259289021192897,-5.917769660901791,0.0,0.0,0.0,0.0,0.0,1.9156333903016572e-5
24,1,1.0110192508352074,-8.597879379274438,0.0,0.0,0.0,0.0,0.0,2.8784021046316437e-5
25,1,1.0109834395722395,-8.60231317481274,0.0,0.0,0.02283,0.00609,0.0,2.8785417429757806e-5
26,1,1.0106850273008228,-8.64134918397025,0.0,0.0,0.21660000000000001,0.05777,0.0,2.879747264237536e-5
27,1,1.0373944527614054,-14.19289316384803,0.0,0.0,0.0,0.0,0.0,0.0002096725523738591
28,1,1.0363324432301146,-14.319655741859496,0.0,0.0,0.6293,0.1678,0.0,0.00020995394349156848
29,1,1.0058520129165371,-12.49162375610649,0.0,0.0,0.0,0.0,0.0,-3.200324180125832e-5
30,1,1.0043581751338055,-12.669324177100716,0.0,0.0,0.9997,0.2666,0.0,-3.2055341011814866e-5
31,1,1.0319756572957524,-14.96868072503529,0.0,0.0,0.0,0.0,0.0,7.679791435874664e-5
32,1,1.0318296465693975,-14.985820290961568,0.0,0.0,0.09765,0.02604,0.0,7.681233831121586e-5
33,1,1.0054434149295919,-13.204090563172459,0.0,0.0,0.0,0.0,0.0,1.855640502755729e-5
34,1,1.0050699621171422,-13.248273483874225,0.0,0.0,0.25,0.06666,0.0,1.8567270795671812e-5
35,1,1.0173971851922814,-13.792722520013742,0.0,0.0,0.0,0.0,0.0,9.085122849276913e-5
36,1,1.0168031311089691,-13.861738302516393,0.0,0.0,0.4335,0.11560000000000001,0.0,9.091944782696819e-5
37,1,1.0192171463205248,1.2403070802359768,0.0,0.0,0.0,0.0,0.0,-3.681241134730122e-6
38,1,1.0192151940283767,1.2400452024019286,0.0,0.0,0.0012900000000000001,0.00034,0.0,-3.6812446617091683e-6
39,1,1.0287430015533174,-5.721311128089476,0.0,0.0,0.0,0.0,0.0,5.052919527029963e-6
40,1,1.0223136510242532,-6.914902417573913,0.0,0.0,0.0,0.0,0.0,8.59805440936247e-6
41,1,1.0213592656418629,-7.034368321870641,0.0,0.0,0.5799,0.15460000000000002,0.0,8.611107522479702e-6
42,1,1.0246822598560448,-11.498548999214261,0.0,0.0,0.0,0.0,0.0,0.00014917427629298856
43,1,1.0246219943575003,-11.50578569668177,0.0,0.0,0.044610000000000004,0.011899999999999999,0.0,0.00014918555189806463
44,1,1.0178769836987778,-7.658083825448649,0.0,0.0,0.0,0.0,0.0,-1.4512310948818868e-5
45,1,1.0178436938316444,-7.662247514651298,0.0,0.0,0.02031,0.00542,0.0,-1.4512770095868404e-5
46,1,0.9971976449779222,-11.11983420500316,0.0,0.0,0.0,0.0,0.0,1.796621772893745e-5
47,1,0.9965328496861532,-11.202264816892542,0.0,0.0,0.4341,0.1158,0.0,1.7983540263616885e-5
48,1,1.0152902190706272,-15.955965808905406,0.0,0.0,0.0,0.0,0.0,0.002277781325098662
49,2,1.0150180355321134,-15.753474755313157,0.013000000000000001,-0.0015900098346595063,0.0,0.0,0.0,0.0
50,2,1.014953794527062,-15.718256363761228,0.026000000000000002,-0.0031700097807607795,0.0,0.0,0.0,0.0
51,1,1.0152762867000185,-15.95657072153907,0.0,0.0,0.0035399999999999997,0.00094,0.0,0.0022778356428313634
52,1,1.0149341757507921,-15.997205192948629,0.0,0.0,0.2339,0.06237,0.0,0.0022787795207796133
53,1,1.0117173831927568,-11.141680070674413,0.0,0.0,0.0,0.0,0.0,-3.5257144199521e-5
54,1,1.0112017441412509,-11.197824855536048,0.0,0.0,0.3481,0.09282,0.0,-3.52750963860687e-5
55,1,1.0238730368084328,-10.890472666108444,0.0,0.0,0.0,0.0,0.0,0.00045459988687031067
56,1,1.0238380293324862,-10.894322180190475,0.0,0.0,0.02253,0.00601,0.0,0.0004546190904069815
57,1,1.0120502138598175,-7.950531706994256,0.0,0.0,0.0,0.0,0.0,0.00016435842802009528
58,1,1.0049056601856932,-10.579965163692904,0.0,0.0,0.0,0.0,0.0,0.0001982239318860069
59,1,1.0025771601575537,-10.875069549044337,0.0,0.0,1.409,0.37579999999999997,0.0,0.0001988326512801472
60,1,1.0188132742897056,-7.4502779723472345,0.0,0.0,0.0,0.0,0.0,1.2573375409121012e-5
61,1,1.018810307424448,-7.450657982720554,0.0,0.0,0.0020399999999999997,0.00054,0.0,1.2573431670519632e-5
62,1,1.006601964653524,-9.794165739255527,0.0,0.0,0.0,0.0,0.0,-0.00015197246577339216
63,2,1.006601964653524,-9.794165739255527,0.0,0.0,0.0,0.0,0.0,0.0
64,1,1.0060715230822472,-9.855123709786106,0.0,0.0,0.3478,0.09273999999999999,0.0,-0.0001520638381388472
65,1,1.0263102330015899,-8.752518120730581,0.0,0.0,0.0,0.0,0.0,0.00018678285612870035
66,1,1.0245942142801645,-10.253218778398807,0.0,0.0,0.0,0.0,0.0,0.00041033583639404165
67,1,1.0245234346256644,-10.261140098150598,0.0,0.0,0.04569,0.01218,0.0,0.00041036997241584956
68,1,1.0255896238547788,-11.028344989508298,0.0,0.0,0.0,0.0,0.0,0.00019760418968263748
69,1,1.0253016530907326,-11.063637275494942,0.0,0.0,0.1696,0.04523,0.0,0.00019767638525637927
70,1,0.9960493535171068,-13.049443637498642,0.0,0.0,0.0,0.0,0.0,0.00023130394665739207
71,2,0.9960010927167582,-12.946016657939012,0.04,-0.0019600060135094356,0.0,0.0,0.0,0.0
72,2,0.9959612469559922,-12.882004338001508,0.02,-0.000980005913616679,0.0,0.0,0.0,0.0
73,2,0.9961560199739696,-12.828545279821249,0.013999999999999999,-0.0002348215385458824,0.0,0.0,0.0,0.0
74,1,1.0243687907419097,-14.81263305139436,0.0,0.0,0.0,0.0,0.0,6.281360259599476e-5
75,1,1.0242922332513187,-14.821845430882869,0.0,0.0,0.05301,0.01414,0.0,6.281999132623926e-5
76,1,1.0177164986706637,2.1226922185130532,0.0,0.0,0.0,0.0,0.0,-3.1562618867904035e-6
77,1,1.0176086583275517,2.110665699372461,0.0,0.0,0.06951,0.01854,0.0,-3.156247095090649e-6
78,1,1.0141259159072833,-7.209890162545395,0.0,0.0,0.0,0.0,0.0,0.00029036145955139953
79,1,1.0141193416736358,-7.210540625527865,0.0,0.0,0.00381,0.0010199999999999999,0.0,0.00029036395399670214
80,1,1.0314552363682703,-8.193889453492817,0.0,0.0,0.0,0.0,0.0,9.737989455611586e-5
81,1,1.0269874922939821,-10.65177805090373,0.0,0.0,0.0,0.0,0.0,0.00016434998514738638
82,2,1.036750632958529,-2.1537850206039018,3.6189999999999998,0.3170707524265883,0.0,0.0,0.0,0.0
83,1,1.0038258803476845,-13.64531949051779,0.0,0.0,0.0,0.0,0.0,1.9649625326738756e-5
84,1,1.0028360685985702,-13.767131577426861,0.0,0.0,0.6141,0.1638,0.0,1.9681228299087832e-5
85,1,1.02545048236561,-13.791812833758884,0.0,0.0,0.0,0.0,0.0,5.7763283172232e-5
86,1,1.0251596300939778,-13.827542845565654,0.0,0.0,0.1759,0.04691,0.0,5.778588258845636e-5
87,1,1.0014987295872102,2.940244750507871,0.0,0.0,0.0,0.0,0.0,5.546133448178743e-6
88,1,1.0014161148468972,2.9300338383639537,0.0,0.0,0.05253,0.01401,0.0,5.546945705837038e-6
89,1,1.015340265675582,-9.012762805999987,0.0,0.0,0.0,0.0,0.0,-7.808813745723028e-5
90,1,1.015248427691697,-9.024954087835425,0.0,0.0,0.05901,0.01574,0.0,-7.809711108538614e-5
91,1,1.0112937022831832,-6.450316896143759,0.0,0.0,0.0,0.0,0.0,0.00019191729616577184
92,1,1.0103017429999945,-6.5766624933593745,0.0,0.0,0.6503,0.1734,0.0,0.00019215946895718788
93,1,1.015311466398556,-4.272846454560469,0.0,0.0,0.0,0.0,0.0,-8.818914768618118e-6
94,1,1.0152390263740152,-4.2819429825314055,0.0,0.0,0.052140000000000006,0.0139,0.0,-8.819456564791864e-6
95,1,1.0116742072853684,-6.372028389675923,0.0,0.0,0.0,0.0,0.0,0.0001781225515119924
96,1,1.0111922067991495,-6.431118906758455,0.0,0.0,0.34,0.09066,0.0,0.00017822786186842652
97,1,1.029303172861515,-16.574459307216884,0.0,0.0,0.0,0.0,0.0,0.001753112778798036
98,1,1.0287071136523285,-16.651359504344253,0.0,0.0,0.3709,0.09891,0.0,0.001754506368333461
99,1,1.0231718316687317,-6.963937093323255,0.0,0.0,0.0,0.0,0.0,8.541577568007209e-5
100,1,1.0229586421860515,-6.989456030925301,0.0,0.0,0.1352,0.03606,0.0,8.543810685556359e-5
101,1,1.0231578027994415,-6.965448980598846,0.0,0.0,0.00891,0.0023799999999999997,0.0,8.541716966028849e-5
102,1,1.0124112114814523,-14.561910513545172,0.0,0.0,0.0,0.0,0.0,0.0014350369734203974
103,1,1.0117729603354202,-14.642382980756802,0.0,0.0,0.38799999999999996,0.1035,0.0,0.0014362236984219229
104,1,1.0181607670750272,-15.356834354170608,0.0,0.0,0.0,0.0,0.0,9.40393222488975e-5
105,1,1.0168350729919637,-15.515614708888451,0.0,0.0,0.8033,0.21420000000000003,0.0,9.420227606026973e-5
106,1,1.0197991694519157,-12.689544002349633,0.0,0.0,0.0,0.0,0.0,7.156869057031614e-5
107,1,1.0195744431951648,-12.716459529328697,0.0,0.0,0.16,0.042679999999999996,0.0,7.158952806441188e-5
108,1,1.0149003455942347,-7.942979458451652,0.0,0.0,0.0,0.0,0.0,3.7158671836652004e-5
109,1,1.014214110009537,-8.018038377224903,0.0,0.0,0.4758,0.12689999999999999,0.0,3.7189480034896184e-5
110,1,1.026823556790756,-2.794675575982666,0.0,0.0,0.0,0.0,0.0,-2.3436485162309562e-5
111,1,1.025901099771274,-2.9155532247836837,0.0,0.0,0.6229,0.1661,0.0,-2.34621489150675e-5
112,1,1.0129639221425377,-11.6849455531564,0.0,0.0,0.0,0.0,0.0,1.6705844101013428e-5
113,1,1.0122924301964096,-11.760690499334821,0.0,0.0,0.45990000000000003,0.1226,0.0,1.6722631752308002e-5
114,1,1.0189444692485679,-14.19302726528698,0.0,0.0,0.0,0.0,0.0,9.58844284279444e-5
115,1,1.0188744711770452,-14.202033403334001,0.0,0.0,0.05061,0.013500000000000002,0.0,9.58935366505877e-5
116,1,1.018901135631153,-14.198627224715523,0.0,0.0,0.030990000000000004,0.00826,0.0,9.589010095881995e-5
117,1,1.005432098280355,-12.123946813613511,0.0,0.0,0.0,0.0,0.0,0.0001940401536809774
118,1,1.0052854056781197,-12.142374006254192,0.0,0.0,0.08832000000000001,0.02355,0.0,0.0001940774372695292
119,1,0.9893624763260741,-13.103105956313334,0.0,0.0,0.0,0.0,0.0,0.00027119539048191206
120,1,0.9889221495848107,-13.157045363666859,0.0,0.0,0.3165,0.08439999999999999,0.0,0.00027134753817419983
121,1,1.007087521237953,-11.863691597753188,0.0,0.0,0.0,0.0,0.0,-4.7855928886386295e-5
122,1,1.00624759402015,-11.975272201229554,0.0,0.0,0.5336,0.1423,0.0,-4.790635922885381e-5
123,1,1.0294807543594315,-2.222038043924343,0.0,0.0,0.0,0.0,0.0,4.418060900584488e-5
124,1,1.0273472126999197,-2.913702113205137,0.0,0.0,0.0,0.0,0.0,6.335977400710358e-5
125,2,1.0294807543594315,-2.222038043924343,0.0,0.0,0.0,0.0,0.0,0.0
126,2,1.0294807543594315,-2.222038043924343,0.0,0.0,0.0,0.0,0.0,0.0
127,2,1.039047802078162,1.934606400680954,1.62,0.25331164110402987,0.0,0.0,0.0,0.0
128,2,1.037128903963453,-0.8483346936188141,1.62,0.503455987225612,0.0,0.0,0.0,0.0
129,1,0.9872296887063141,-13.82509815836827,0.0,0.0,0.0,0.0,0.0,0.0002666512226735324
130,1,0.9855931332667173,-14.009511050376593,0.0,0.0,1.032,0.2753,0.0,0.00026718201766174005
131,1,1.0195392173264493,-7.330682608849737,0.0,0.0,0.0,0.0,0.0,1.2293321766937014e-5
132,1,1.019133917936345,-7.378423424643239,0.0,0.0,0.252,0.06721,0.0,1.2300516200009148e-5
133,1,1.0124239381218343,-6.355181783154567,0.0,0.0,0.0,0.0,0.0,0.00018531200724885294
134,1,1.0118591551540006,-6.425433484136898,0.0,0.0,0.4265,0.1137,0.0,0.00018544192408502356
135,1,1.0114919342521467,-9.204524078960118,0.0,0.0,0.0,0.0,0.0,-9.066017848666093e-5
136,1,1.0110882812964452,-9.257209587240531,0.0,0.0,0.2676,0.07135,0.0,-9.070587141088252e-5
137,1,1.007671690948142,-12.228869606421695,0.0,0.0,0.0,0.0,0.0,0.00015217040499810653
138,1,1.006442628296875,-12.390698664667752,0.0,0.0,0.787,0.20989999999999998,0.0,0.00015242698426524122
139,1,1.0152885713398203,-7.92177583902289,0.0,0.0,0.0,0.0,0.0,2.1629455765230825e-5
140,1,1.015284864799642,-7.922203455401079,0.0,0.0,0.00255,0.00068,0.0,2.1629563907059905e-5
141,1,1.001311211929534,-0.29674606845903445,0.0,0.0,0.0,0.0,0.0,9.6921454908228e-6
142,1,0.998716736284459,-0.5955778635463759,0.0,0.0,1.6130000000000002,0.4302,0.0,9.730772695814649e-6
143,1,1.0188700184146107,8.642675570647501,0.0,0.0,0.0,0.0,0.0,1.3064156685997823e-7
144,2,1.0399963005445665,21.17410827836582,6.025,1.1131979066893571,0.0,0.0,0.0,0.0
145,2,1.0399931798491817,11.319829604514062,2.9819999999999998,1.267070824372115,0.0,0.0,0.0,0.0
146,1,1.0283086152819403,-5.755075910898567,0.0,0.0,0.0,0.0,0.0,-9.406538768803596e-6
147,1,1.0167613427613498,-6.419573544279664,0.0,0.0,0.0,0.0,0.0,-9.366194291648315e-6
148,1,1.0158310381603963,-6.539883473809639,0.0,0.0,0.5742,0.1531,0.0,-9.373996857290912e-6
149,1,1.0241111006143875,-11.48470127278622,0.0,0.0,0.0,0.0,0.0,0.00023350481146846427
150,1,1.024085816175994,-11.487576049520952,0.0,0.0,0.015029999999999998,0.0040100000000000005,0.0,0.00023351211712237341
151,1,1.0263083845448642,-5.99716521333371,0.0,0.0,0.0,0.0,0.0,1.3236586519465115e-5
152,1,1.0179771654800107,-8.388000048373486,0.0,0.0,0.0,0.0,0.0,1.4768588171906689e-5
153,1,1.01672796613148,-8.541212428933994,0.0,0.0,0.9315000000000001,0.2484,0.0,1.4795316812744094e-5
154,1,1.0089805151076057,-8.837523934256732,0.0,0.0,0.0,0.0,0.0,1.5175422757892266e-5
155,1,1.008094343523529,-8.945321968827228,0.0,0.0,0.6684,0.1782,0.0,1.5194813476319975e-5
156,1,0.9855906596876403,-12.50420386456424,0.0,0.0,0.0,0.0,0.0,2.1509825820407063e-5
157,1,0.9839203702366862,-12.717362073563672,0.0,0.0,1.055,0.2812,0.0,2.1562828728539106e-5
158,1,1.0074553315797843,-11.429646623782343,0.0,0.0,0.0,0.0,0.0,-3.5198810530348985e-5
159,1,1.0070844252775883,-11.477559183931646,0.0,0.0,0.2285,0.06094,0.0,-3.521426582415467e-5
160,1,1.0191939640069694,-12.975561388732642,0.0,0.0,0.0,0.0,0.0,6.270674003534956e-5
161,1,1.0188095126580725,-13.024525086964822,0.0,0.0,0.2595,0.06921000000000001,0.0,6.273978642842586e-5
162,1,1.0285609860217082,-5.716509538853979,0.0,0.0,0.0,0.0,0.0,-9.895264208841279e-6
163,1,1.0246892761998556,-6.497638410463085,0.0,0.0,0.0,0.0,0.0,-1.070083176434293e-5
164,1,1.0230391741182403,-6.702245654566788,0.0,0.0,0.9815,0.26170000000000004,0.0,-1.0716094621860766e-5
165,1,1.0297470332630756,-1.8901480762534457,0.0,0.0,0.0,0.0,0.0,3.932396556609392e-5
166,1,1.0253072991463796,-3.2111968481313644,0.0,0.0,0.0,0.0,0.0,5.55997548438771e-5
167,2,1.0381196983608225,0.3375631677476628,1.935,0.39887089986272417,0.0,0.0,0.0,0.0
168,2,1.038856057339504,1.7856150116161347,1.935,0.31283443214342305,0.0,0.0,0.0,0.0
169,2,1.0384081460726322,3.412854470798376,3.87,0.47756129989465423,0.0,0.0,0.0,0.0
170,1,1.0111838161405722,-6.5141711403282825,0.0,0.0,0.0,0.0,0.0,0.00017957328148363898
171,1,1.0109970873961256,-6.5394043746896955,0.0,0.0,0.12380000000000001,0.033,0.0,0.00017961802445879573
172,1,1.0064290146671024,-10.844052447152961,0.0,0.0,0.0,0.0,0.0,0.00017574530406901865
173,1,1.0063813903606327,-10.849284082457539,0.0,0.0,0.031349999999999996,0.00836,0.0,0.00017575528750696958
174,1,1.0063271056792806,-10.855959424216138,0.0,0.0,0.07305,0.01948,0.0,0.00017576744598007683
175,1,1.033520463797416,-1.40187892101914,0.0,0.0,0.0,0.0,0.0,3.6375284896508654e-6
176,1,1.022873487823438,-0.5665258607398749,0.0,0.0,0.0,0.0,0.0,-4.768427264354201e-6
177,1,1.0227420593670624,-0.5833607753859893,0.0,0.0,0.08781,0.02342,0.0,-4.7688081772183925e-6
178,1,1.0227718309330995,-0.577619845283068,0.0,0.0,0.06813,0.01817,0.0,-4.768570211879976e-6
179,1,1.0004831387750635,-12.661962119576451,0.0,0.0,0.0,0.0,0.0,-4.2948452181276515e-5
180,1,1.0002606170070274,-12.687199160085875,0.0,0.0,0.1414,0.0377,0.0,-4.295858368513493e-5
181,1,1.0434853311870227,-16.463526661755377,0.0,0.0,0.0,0.0,0.0,0.0017756399229807954
182,1,1.0421896125481414,-16.617845051131823,0.0,0.0,0.8261,0.22030000000000002,0.0,0.0017785097908151453
183,1,1.0242490196908174,-4.562515683226501,0.0,0.0,0.0,0.0,0.0,-2.259443023544905e-5
184,1,1.0238526020271943,-4.6097370279943926,0.0,0.0,0.3018,0.08047,0.0,-2.2603886179473194e-5
185,1,1.00909260906978,-8.045437406437117,0.0,0.0,0.0,0.0,0.0,0.00013519667016158505
186,1,1.0084711800094026,-8.119886146986357,0.0,0.0,0.4535,0.1209,0.0,0.00013529935194282142
187,1,1.0145710852309286,-9.400797203629038,0.0,0.0,0.0,0.0,0.0,-7.150122403993276e-5
188,1,1.0144069637040274,-9.419047002091478,0.0,0.0,0.1105,0.02946,0.0,-7.15136227308895e-5
189,1,1.027243287011896,-15.095270420423935,0.0,0.0,0.0,0.0,0.0,6.993126937347157e-5
190,1,1.0270385811280205,-15.116864135925688,0.0,0.0,0.1407,0.03752,0.0,6.994861314344377e-5
191,1,1.0196133006754338,-13.655486129672775,0.0,0.0,0.0,0.0,0.0,0.00010753892202905475
192,1,1.019340586194506,-13.687939706355154,0.0,0.0,0.16440000000000002,0.043840000000000004,0.0,0.00010757614541631431
193,1,1.0142543240147048,-12.172904259294208,0.0,0.0,0.0,0.0,0.0,2.421728246102007e-5
194,1,1.0137698465295382,-12.230721072985641,0.0,0.0,0.2869,0.07652,0.0,2.4234159187399982e-5
195,1,1.0286285147279153,-5.746088610714865,0.0,0.0,0.0,0.0,0.0,-8.89675622851893e-6
196,1,1.019118642605678,-8.007810867505274,0.0,0.0,0.0,0.0,0.0,-4.395079103826116e-6
197,2,1.0402967358429578,-0.8785190650155112,2.9360000000000004,0.4589319418535765,0.0,0.0,0.0,0.0
198,2,1.04041984889885,-3.332152606999454,2.073,0.5682945981047454,0.0,0.0,0.0,0.0
199,1,1.017776979674041,-8.157054791201638,0.0,0.0,0.8639,0.2304,0.0,-4.395295135014912e-6
200,1,1.0202165262280658,-7.257889409855307,0.0,0.0,0.0,0.0,0.0,-1.3019409576664382e-5
201,1,1.0200830079567786,-7.272528762679425,0.0,0.0,0.08889,0.023700000000000002,0.0,-1.3020689225287435e-5
202,1,1.0040665845053525,-10.256869650846545,0.0,0.0,0.0,0.0,0.0,0.0001783726164080478
203,1,1.0039908348198279,-10.26604714579827,0.0,0.0,0.04689,0.0125,0.0,0.00017838982155599038
204,1,1.0033405487127256,-10.354054227214501,0.0,0.0,0.4567,0.12179999999999999,0.0,0.00017854994122074678
205,1,1.021437265880378,-14.590959531309268,0.0,0.0,0.0,0.0,0.0,9.08968348413694e-5
206,1,1.0213968838179521,-14.595716483594142,0.0,0.0,0.03009,0.008020000000000001,0.0,9.090154950618397e-5
207,1,1.0210741243327035,-14.634677527057448,0.0,0.0,0.2257,0.06019,0.0,9.093966237127472e-5
208,1,1.0170241461002845,-14.371444958399517,0.0,0.0,0.0,0.0,0.0,0.00021812147621334035
209,1,1.0158318353756137,-14.528696345462755,0.0,0.0,0.8186,0.2183,0.0,0.00021847715661461094
210,1,1.0011359610587254,-10.008925187563063,0.0,0.0,0.0,0.0,0.0,2.6518383641749722e-5
211,1,1.0005569346466063,-10.07954933053884,0.0,0.0,0.3428,0.09141,0.0,2.6539373475198624e-5
212,1,1.0193426088427304,-12.795200399358878,0.0,0.0,0.0,0.0,0.0,6.078365468007742e-5
213,1,1.0177941138367377,-12.98457930002703,0.0,0.0,0.9748,0.26,0.0,6.091068519122316e-5
214,1,1.0044621464228602,-13.043975823480853,0.0,0.0,0.0,0.0,0.0,0.00011196711816020845
215,1,1.0031134303156104,-13.219744110101777,0.0,0.0,0.8448,0.2253,0.0,0.00011217673671240478
216,1,0.9925283902989926,-13.391657951554576,0.0,0.0,0.0,0.0,0.0,0.00027084512640643255
217,1,0.9917292790225598,-13.486883736858623,0.0,0.0,0.551,0.1469,0.0,0.00027111794233797336
218,1,1.0259639774728722,-13.538019478074515,0.0,0.0,0.0,0.0,0.0,6.942627903356867e-5
219,1,1.0259586726143153,-13.538652119548573,0.0,0.0,0.00333,0.00089,0.0,6.942678821684014e-5
220,1,1.035333269028368,-1.749267567498537,0.0,0.0,0.0,0.0,0.0,7.062593484531847e-6
221,1,1.0232316317893588,-4.8786015509454135,0.0,0.0,0.0,0.0,0.0,9.734067684503926e-5
222,2,1.0356713612368165,-1.6878229120329458,0.052000000000000005,0.014632350819675545,0.0,0.0,0.0,0.0
223,2,1.037459560770194,-1.4573837468906885,0.18,0.06911990618771419,0.0,0.0,0.0,0.0
224,2,1.0393900392610673,1.5190245668831581,5.112,0.39291361379271755,0.0,0.0,0.0,0.0
225,2,1.0388216925696907,-0.04875730832311255,5.148,0.585216814537223,0.0,0.0,0.0,0.0
226,1,1.0116438121478906,-6.523197608233832,0.0,0.0,0.0,0.0,0.0,0.00018210701150253507
227,1,1.0115595924566023,-6.532816210946938,0.0,0.0,0.054240000000000003,0.014459999999999999,0.0,0.00018212485041103503
228,1,1.0078033550357244,-7.184312328258877,0.0,0.0,0.0,0.0,0.0,9.525090486132184e-5
229,1,1.0069706422688138,-7.289117693695922,0.0,0.0,0.5409,0.1442,0.0,9.535233210437772e-5
230,1,1.0277679054653914,-11.547301206598723,0.0,0.0,0.0,0.0,0.0,0.0017582926935717778
231,2,1.0272073676978277,-11.249494382683308,0.028999999999999998,-0.003540009789067719,0.0,0.0,0.0,0.0
232,1,1.0284502964232578,-6.626029619982055,0.0,0.0,0.0,0.0,0.0,-1.9598422712444462e-5
233,1,1.0157545309734923,-9.96444349857772,0.0,0.0,0.0,0.0,0.0,-3.082766374285287e-5
234,1,1.0148891923147443,-10.073346753829293,0.0,0.0,0.5996,0.15990000000000001,0.0,-3.0857895526769195e-5
235,1,1.0288463206144158,-10.544611450229086,0.0,0.0,0.0,0.0,0.0,4.230624089445527e-5
236,1,1.0215533663078629,-11.759296565852921,0.0,0.0,0.0,0.0,0.0,4.613728275911499e-5
237,1,1.0215110245337569,-11.76400412599618,0.0,0.0,0.027120000000000002,0.0072299999999999994,0.0,4.613977063320565e-5
238,1,1.0075519499178152,-9.75080196697171,0.0,0.0,0.0,0.0,0.0,1.6130064761647037e-5
239,1,1.006976599868403,-9.827739056945868,0.0,0.0,0.39130000000000004,0.10439999999999999,0.0,1.6144083210844224e-5
240,1,1.022383467068453,-14.479852679691007,0.0,0.0,0.0,0.0,0.0,5.735041615089726e-5
241,1,1.0220734806374256,-14.52140320220625,0.0,0.0,0.1974,0.05264,0.0,5.737585672334173e-5
242,1,1.0007916876784044,-13.814592489112762,0.0,0.0,0.0,0.0,0.0,-5.667155001614484e-5
243,1,0.9996014378387085,-13.965615431668807,0.0,0.0,0.7447,0.1986,0.0,-5.675444865978126e-5
244,1,1.0092627848653943,-11.133026554204879,0.0,0.0,0.0,0.0,0.0,0.00017330096134411647
245,1,1.0090934411164816,-11.15295875580608,0.0,0.0,0.1184,0.031560000000000005,0.0,0.00017333735227928864
246,1,1.030785894863151,-5.486585315899587,0.0,0.0,0.0,0.0,0.0,-9.273555116210004e-6
247,1,1.0254556948579812,-4.770572702893304,0.0,0.0,0.0,0.0,0.0,-1.9709124899869836e-5
248,2,1.030785894863151,-5.486585315899587,0.0,0.0,0.0,0.0,0.0,0.0
249,2,1.030785894863151,-5.486585315899587,0.0,0.0,0.0,0.0,0.0,0.0
250,2,1.030785894863151,-5.486585315899587,0.0,0.0,0.0,0.0,0.0,0.0
251,1,0.990369080213876,-11.961230039120295,0.0,0.0,0.0,0.0,0.0,9.267568458415988e-5
252,1,0.9883279544572922,-12.217400697127626,0.0,0.0,1.187,0.3165,0.0,9.292891781331652e-5
253,1,0.992503863870943,-12.366666081281823,0.0,0.0,0.0,0.0,0.0,0.0002732996142185546
254,2,0.992503863870943,-12.366666081281823,0.0,0.0,0.0,0.0,0.0,0.0
255,2,0.992503863870943,-12.366666081281823,0.0,0.0,0.0,0.0,0.0,0.0
256,2,0.992503863870943,-12.366666081281823,0.0,0.0,0.0,0.0,0.0,0.0
257,2,0.992503863870943,-12.366666081281823,0.0,0.0,0.0,0.0,0.0,0.0
258,2,0.992253154590581,-12.199998708635183,0.011000000000000001,-0.0013400072843032219,0.0,0.0,0.0,0.0
259,1,0.9923707530601066,-12.382818463435804,0.0,0.0,0.0816,0.02176,0.0,0.0002733455629513565
260,1,1.0257376167681924,-3.1557174599315276,0.0,0.0,0.0,0.0,0.0,5.949053472843073e-5
261,1,1.025471594528964,-3.187896315523197,0.0,0.0,0.1868,0.04982,0.0,5.950952769256143e-5
262,1,1.0273989279432698,-6.900623177180033,0.0,0.0,0.0,0.0,0.0,-3.0192042071566827e-5
263,1,1.01710120996339,-11.14689070830727,0.0,0.0,0.0,0.0,0.0,-3.713051428925327e-5
264,2,1.0273989279432698,-6.900623177180033,0.0,0.0,0.0,0.0,0.0,0.0
265,2,1.0273989279432698,-6.900623177180033,0.0,0.0,0.0,0.0,0.0,0.0
266,1,1.0162002025323869,-11.258315420148122,0.0,0.0,0.6178,0.1648,0.0,-3.716871653500613e-5
267,1,1.0154382628558183,-16.159580704509693,0.0,0.0,0.0,0.0,0.0,8.068092372032247e-5
268,1,1.01374842379169,-16.38382749654838,0.0,0.0,1.171,0.3124,0.0,8.087558349520219e-5
269,1,1.0154317269287891,-5.1303514285347696,0.0,0.0,0.0,0.0,0.0,-9.01050699763542e-6
270,1,1.0153222611702812,-5.144803249467615,0.0,0.0,0.06801,0.01814,0.0,-9.011423258273223e-6
271,1,1.0282103410245957,-10.732968911689762,0.0,0.0,0.0,0.0,0.0,4.2289851981585766e-5
272,1,1.022770016270067,-12.464836717998045,0.0,0.0,0.0,0.0,0.0,4.202914107761199e-5
273,1,1.0226181868251718,-12.484834492356322,0.0,0.0,0.09492,0.025310000000000003,0.0,4.203826464803102e-5
274,1,1.0256941982502121,-3.607454106447468,0.0,0.0,0.0,0.0,0.0,-2.7884262592545564e-5
275,2,1.0256941982502121,-3.607454106447468,0.0,0.0,0.0,0.0,0.0,0.0
276,1,1.0110362312788694,-11.655261253861006,0.0,0.0,0.0,0.0,0.0,-3.809585342065887e-5
277,1,1.0110302981059591,-11.656061209153838,0.0,0.0,0.004050000000000001,0.00108,0.0,-3.8096123727779584e-5
278,1,1.0109475819760068,-11.667257007192928,0.0,0.0,0.05769,0.01538,0.0,-3.810005616105643e-5
279,1,1.0038412389158495,-8.80640003392961,0.0,0.0,0.0,0.0,0.0,9.733911005271656e-5
280,1,1.003585467924272,-8.83430660833953,0.0,0.0,0.16940000000000002,0.04518,0.0,9.736773867586945e-5
281,1,1.003387766067073,-14.70008065450942,0.0,0.0,0.0,0.0,0.0,0.000994400927228276
282,1,1.0016152405027743,-14.932320271457684,0.0,0.0,1.173,0.3128,0.0,0.000996787455874118
283,1,1.015899063240078,-12.222389242934716,0.0,0.0,0.0,0.0,0.0,3.6571565466136344e-5
284,1,1.0153487237887895,-12.291601214880654,0.0,0.0,0.3265,0.08706,0.0,3.659991167856217e-5
285,1,1.0311477886160505,-13.238812176803975,0.0,0.0,0.0,0.0,0.0,0.0017709183606883804
286,1,1.0310187999804354,-13.252507706960223,0.0,0.0,0.08268,0.02205,0.0,0.0017711894618932281
287,1,1.0088499892870042,-10.447307630643099,0.0,0.0,0.0,0.0,0.0,-7.418868371679157e-5
288,1,1.0079689247247703,-10.567893792410993,0.0,0.0,0.5811,0.155,0.0,-7.427437824522197e-5
289,1,1.0194352556485542,-4.547167592389347,0.0,0.0,0.0,0.0,0.0,7.110946417314756e-5
290,1,1.0193785952776415,-4.554615547912071,0.0,0.0,0.0369,0.00984,0.0,7.111472670986828e-5
291,1,1.0038841270674697,-12.111788272202862,0.0,0.0,0.0,0.0,0.0,-3.882604091521779e-5
292,1,1.0037749067157957,-12.125068768878947,0.0,0.0,0.07617,0.02031,0.0,-3.883079424122211e-5
293,1,1.0200593192100655,-12.792851324158836,0.0,0.0,0.0,0.0,0.0,0.00017627091107789015
294,1,1.019676075795718,-12.836835641785331,0.0,0.0,0.2561,0.06828000000000001,0.0,0.00017635249512848377
295,1,1.0226795834488667,-9.504492619701672,0.0,0.0,0.0,0.0,0.0,0.00019137208293578762
296,1,1.022568721038279,-9.518533216611466,0.0,0.0,0.07788,0.02077,0.0,0.00019139960016698135
297,1,1.019550144954132,-8.638260975630205,0.0,0.0,0.0,0.0,0.0,0.00017715281032263153
298,1,1.0165357276768363,-10.059216602977695,0.0,0.0,0.0,0.0,0.0,0.00017415814798938027
299,1,1.0163186347938848,-10.087412465866059,0.0,0.0,0.1457,0.038849999999999996,0.0,0.0001742082201643708
300,1,1.0062455353526814,-2.489526631599659,0.0,0.0,0.0,0.0,0.0,1.5105298013641817e-5
301,2,1.0068129423816556,-2.3571103023454985,0.028999999999999998,0.006189125282317673,0.0,0.0,0.0,0.0
302,2,1.0068059659636819,-2.3622605069429503,0.028999999999999998,0.005875849840892835,0.0,0.0,0.0,0.0
303,1,1.0047620253831255,-2.677570272431204,0.0,0.0,0.8676,0.2314,0.0,1.5138218906320284e-5
304,1,0.9879234216279924,-13.709171901796157,0.0,0.0,0.0,0.0,0.0,0.00030059094012069987
305,2,0.9878517712632952,-13.3939347320494,0.01,-0.0004900058133343023,0.0,0.0,0.0,0.0
306,2,0.9877329858696878,-13.356622038672622,0.024,-0.0011800060445727111,0.0,0.0,0.0,0.0
307,1,0.9867851980543426,-13.857564726145814,0.0,0.0,0.7604000000000001,0.2028,0.0,0.0003010536983602413
308,1,1.0188073823168384,-12.385094191722796,0.0,0.0,0.0,0.0,0.0,0.0008336435024085858
309,1,1.018651305271468,-12.40410789231465,0.0,0.0,0.09029999999999999,0.02408,0.0,0.000833808711919955
310,1,1.0151057452389451,-15.688629279940674,0.0,0.0,0.0,0.0,0.0,0.0013275250011503309
311,1,1.0144199733195425,-15.772039348935179,0.0,0.0,0.43829999999999997,0.11689999999999999,0.0,0.001328679983161844
312,1,1.0189058566839957,-14.547835790076268,0.0,0.0,0.0,0.0,0.0,8.17649886459653e-5
313,1,1.0186975318401224,-14.57396275056102,0.0,0.0,0.1244,0.033170000000000005,0.0,8.178786670174963e-5
314,1,1.0245215133902863,-10.481941550147063,0.0,0.0,0.0,0.0,0.0,0.00019542847756799883
315,1,1.0245151881864598,-10.48263335006505,0.0,0.0,0.00426,0.00114,0.0,0.00019543012326345358
316,1,1.0190362785370835,-0.6976548518227176,0.0,0.0,0.0,0.0,0.0,-1.817951091259584e-5
317,1,1.0189816899242106,-0.7035913156895442,0.0,0.0,0.03753,0.010009999999999998,0.0,-1.818040716513693e-5
318,1,1.0214541560311579,-1.5546884811603008,0.0,0.0,0.0,0.0,0.0,-1.3197582601737101e-5
319,2,1.0335601526538574,0.17305056890918,0.423,0.16239998944198922,0.0,0.0,0.0,0.0
320,1,0.9969861825251278,-14.012789612118098,0.0,0.0,0.0,0.0,0.0,-4.831595118589853e-5
321,1,0.9945670008401318,-14.312764996569987,0.0,0.0,1.504,0.4011,0.0,-4.8457079291936034e-5
322,1,1.0015643957888631,-12.31613320291915,0.0,0.0,0.0,0.0,0.0,0.00021627554742134302
323,1,1.0008901836808426,-12.39203520053071,0.0,0.0,0.45270000000000005,0.1207,0.0,0.00021645000593292437
324,1,0.9918448039785723,-13.45652999350722,0.0,0.0,0.0,0.0,0.0,0.00024034924046948607
325,1,0.9902416102538546,-13.672025725566792,0.0,0.0,1.035,0.2759,0.0,0.00024088537003429068
326,1,1.0089061576905758,-12.853711264270837,0.0,0.0,0.0,0.0,0.0,-3.702054836283445e-5
327,1,1.0071898181237486,-13.061359291066504,0.0,0.0,1.2109999999999999,0.32280000000000003,0.0,-3.709266844434041e-5
328,1,1.004399218043227,-11.446058803588338,0.0,0.0,0.0,0.0,0.0,0.0006666136230433485
329,1,1.0040437549935783,-11.48870732178701,0.0,0.0,0.2602,0.06938,0.0,0.0006669075503912936
330,1,1.0145186944552653,-8.026442094418922,0.0,0.0,0.0,0.0,0.0,1.9841112224170995e-5
331,1,1.0136107495235096,-8.14524535906951,0.0,0.0,0.5717,0.1525,0.0,1.9867183768374146e-5
332,1,1.0285832867974973,-5.648100413528438,0.0,0.0,0.0,0.0,0.0,9.18986153323789e-6
333,1,1.019928152945993,-7.234498037530464,0.0,0.0,0.0,0.0,0.0,1.4892876244096529e-5
334,1,1.019920654485796,-7.235330516428997,0.0,0.0,0.00501,0.00134,0.0,1.4893028754633707e-5
335,1,1.0199152434200542,-7.236052430110687,0.0,0.0,0.00834,0.00222,0.0,1.489314809077954e-5
336,1,1.0157871482300822,-2.8510866032100064,0.0,0.0,0.0,0.0,0.0,-8.556573048759363e-6
337,1,1.0156975706449467,-2.862913228325133,0.0,0.0,0.05673,0.01513,0.0,-8.55729432310329e-6
338,1,1.011245524476553,7.344703240263721,0.0,0.0,0.0,0.0,0.0,4.510340697473651e-7
339,1,1.0101075421665815,7.198069371725415,0.0,0.0,0.7511,0.2003,0.0,4.548892103028718e-7
340,1,1.0023987103683063,-9.48970005435745,0.0,0.0,0.0,0.0,0.0,6.757763101628016e-5
341,1,1.0020007334856438,-9.540579541795239,0.0,0.0,0.2422,0.06459,0.0,6.761322738192701e-5
342,1,1.011190741128289,-12.651337540037138,0.0,0.0,0.0,0.0,0.0,2.020607750670171e-5
343,1,1.0111523303818812,-12.656225358953291,0.0,0.0,0.02511,0.0067,0.0,2.0207347049455686e-5
344,1,1.0111520853145757,-12.656407430701346,0.0,0.0,0.024300000000000002,0.0064800000000000005,0.0,2.0207367166411114e-5
345,1,0.9975918920391187,-12.873157523774983,0.0,0.0,0.0,0.0,0.0,-5.311411228539208e-5
346,1,0.9969197817647285,-12.95642875940703,0.0,0.0,0.4758,0.12689999999999999,0.0,-5.315637940150373e-5
347,1,0.9889297550311427,-12.727456911634809,0.0,0.0,0.0,0.0,0.0,0.00023148973380835328
348,1,0.9876918224692104,-12.87770364707515,0.0,0.0,0.8640000000000001,0.2304,0.0,0.00023185405029518672
349,1,1.0194331117884363,-11.516897635508585,0.0,0.0,0.0,0.0,0.0,2.082394989157818e-5
350,2,1.0237035400248709,-10.935561616202074,0.15,0.056150406293506386,0.0,0.0,0.0,0.0
351,2,1.0215055040723002,-11.251650323104945,0.062,0.02380995744576462,0.0,0.0,0.0,0.0
352,2,1.0237043509869914,-10.956031799220902,0.14400000000000002,0.0552476166914899,0.0,0.0,0.0,0.0
353,2,1.0397057718363487,-8.668774100809266,0.74,0.28239404905962995,0.0,0.0,0.0,0.0
354,1,1.0218240250556077,-7.0914230845003585,0.0,0.0,0.0,0.0,0.0,-2.532883150620978e-5
355,1,1.021493370755608,-7.13060943316953,0.0,0.0,0.1996,0.053239999999999996,0.0,-2.5337095027905976e-5
356,1,1.0186924923412148,-14.978233870247225,0.0,0.0,0.0,0.0,0.0,0.0002170948449193142
357,1,1.017887866147151,-15.079157057546151,0.0,0.0,0.5573,0.14859999999999998,0.0,0.00021732483294918306
358,1,1.0203897180975334,-16.184925085783803,0.0,0.0,0.0,0.0,0.0,0.0017245546029884874
359,1,1.0201541666556586,-16.211585515202554,0.0,0.0,0.1459,0.038900000000000004,0.0,0.0017250523212870685
360,1,1.001410284477994,-10.173847768792637,0.0,0.0,0.0,0.0,0.0,4.3374226242400284e-5
361,2,1.001410284477994,-10.173847768792637,0.0,0.0,0.0,0.0,0.0,0.0
362,2,1.001410284477994,-10.173847768792637,0.0,0.0,0.0,0.0,0.0,0.0
363,2,1.001410284477994,-10.173847768792637,0.0,0.0,0.0,0.0,0.0,0.0
364,1,1.0009649451862248,-10.233370121866825,0.0,0.0,0.3044,0.08117,0.0,4.340151416610291e-5
365,1,1.0047839210682616,-12.103234246947675,0.0,0.0,0.0,0.0,0.0,-3.337250062083881e-5
366,1,1.0038900094160579,-12.224242698910748,0.0,0.0,0.5649000000000001,0.1506,0.0,-3.340967208692369e-5
367,1,1.0141855699187692,-6.391011735049552,0.0,0.0,0.0,0.0,0.0,0.00017566607667228725
368,1,1.0140298146619389,-6.410632068192962,0.0,0.0,0.11449999999999999,0.030539999999999998,0.0,0.00017570041276982807
369,1,1.017332604555653,-5.372196238612759,0.0,0.0,0.0,0.0,0.0,0.0001739461772001802
370,1,1.016846305718651,-5.42960114455082,0.0,0.0,0.35600000000000004,0.09494,0.0,0.00017404593865696946
371,1,1.027540565904424,-6.471489464918425,0.0,0.0,0.0,0.0,0.0,-1.2370629100788627e-5
372,1,1.0179741238059676,-10.060221623043667,0.0,0.0,0.0,0.0,0.0,6.773834460877267e-6
373,1,1.0175686085742888,-10.108489230560956,0.0,0.0,0.2884,0.07690000000000001,0.0,6.779080380263122e-6
374,1,1.0016520864617269,-12.556886097439053,0.0,0.0,0.0,0.0,0.0,-3.755375468267635e-5
375,1,1.0013296443926427,-12.597551284439584,0.0,0.0,0.2477,0.06604,0.0,-3.7567865156544564e-5
376,1,1.0072298951001928,-9.086394913864554,0.0,0.0,0.0,0.0,0.0,3.731835262330551e-5
377,1,1.0059709541021147,-9.251022121355911,0.0,0.0,0.9039,0.24100000000000002,0.0,3.738381862747691e-5
378,1,1.0198844846105846,-1.8878217621759301,0.0,0.0,0.0,0.0,0.0,-1.2261117530850661e-5
379,1,1.0196796214238626,-1.914073779550202,0.0,0.0,0.1301,0.0347,0.0,-1.2263647949502866e-5
380,1,1.0106602641582236,-8.059638138065933,0.0,0.0,0.0,0.0,0.0,0.00017879080913171968
381,1,1.0105105585227114,-8.07923530964172,0.0,0.0,0.1013,0.02702,0.0,0.0001788263953014049
382,1,1.0259765578040945,-14.835230010164526,0.0,0.0,0.0,0.0,0.0,0.00021410392072967826
383,1,1.0255391080216056,-14.891147131115297,0.0,0.0,0.2995,0.07986,0.0,0.00021422850891602785
384,1,1.0003150082925454,-13.229312486207332,0.0,0.0,0.0,0.0,0.0,0.0006483297406743294
385,1,0.9997967407146912,-13.29215752838697,0.0,0.0,0.36619999999999997,0.09766,0.0,0.0006487528625124778
386,1,1.0251465291075597,-3.5608368088104974,0.0,0.0,0.0,0.0,0.0,5.0249525384645395e-5
387,1,1.0199372849070696,-5.31168981285609,0.0,0.0,0.0,0.0,0.0,0.00011786792347548562
388,2,1.0251465291075597,-3.5608368088104974,0.0,0.0,0.0,0.0,0.0,0.0
389,2,1.0251465291075597,-3.5608368088104974,0.0,0.0,0.0,0.0,0.0,0.0
390,2,1.0251465291075597,-3.5608368088104974,0.0,0.0,0.0,0.0,0.0,0.0
391,2,1.0251465291075597,-3.5608368088104974,0.0,0.0,0.0,0.0,0.0,0.0
392,2,1.0251465291075597,-3.5608368088104974,0.0,0.0,0.0,0.0,0.0,0.0
393,2,1.0251465291075597,-3.5608368088104974,0.0,0.0,0.0,0.0,0.0,0.0
394,2,1.0251465291075597,-3.5608368088104974,0.0,0.0,0.0,0.0,0.0,0.0
395,2,1.0251465291075597,-3.5608368088104974,0.0,0.0,0.0,0.0,0.0,0.0
396,2,1.0251465291075597,-3.5608368088104974,0.0,0.0,0.0,0.0,0.0,0.0
397,1,1.0193899477273989,-5.381320518708238,0.0,0.0,0.3995,0.1065,0.0,0.0001179494355653044
398,1,1.0196868221867146,-5.338671671187148,0.0,0.0,0.1677,0.04471,0.0,0.00011790027684618804
399,1,1.022107900722852,-12.731616010490752,0.0,0.0,0.0,0.0,0.0,6.523888423205121e-5
400,1,1.0217124889737288,-12.779367294999174,0.0,0.0,0.2302,0.061399999999999996,0.0,6.52728418042987e-5
401,1,1.0076979706631077,4.094569990683719,0.0,0.0,0.0,0.0,0.0,-6.491891603841858e-6
402,1,1.006375378327691,3.916079950123384,0.0,0.0,0.8835,0.23559999999999998,0.0,-6.499774438591643e-6
403,1,1.0126505645437403,-12.26372575635927,0.0,0.0,0.0,0.0,0.0,5.5617809188352724e-5
404,1,1.0123493765592115,-12.300209673768265,0.0,0.0,0.1977,0.05272,0.0,5.564084051546907e-5
405,1,1.005237773846866,-3.1276219724817955,0.0,0.0,0.0,0.0,0.0,9.414253461189938e-6
406,1,1.0051577880871625,-3.137730065887502,0.0,0.0,0.0525,0.013999999999999999,0.0,9.415444432540885e-6
407,1,1.033346906973415,-9.098723913936697,0.0,0.0,0.0,0.0,0.0,4.006030106237204e-5
408,1,1.0270515504098443,-11.21213186371306,0.0,0.0,0.0,0.0,0.0,5.378388565897713e-5
409,2,1.033346906973415,-9.098723913936697,0.0,0.0,0.0,0.0,0.0,0.0
410,2,1.0390130464761114,-7.3215511537789855,0.7943000000000001,0.14746646868058838,0.0,0.0,0.0,0.0
411,2,1.0382373187738492,-8.104102033832998,0.7943000000000001,0.21762319665227567,0.0,0.0,0.0,0.0
412,2,1.0384623716904975,-7.958669799634025,0.7943000000000001,0.1992491279247801,0.0,0.0,0.0,0.0
413,2,1.0389738290501043,-7.776097022907743,0.616,0.14339215802868438,0.0,0.0,0.0,0.0
414,2,1.033346906973415,-9.098723913936697,0.0,0.0,0.0,0.0,0.0,0.0
415,1,1.0043052487368211,-11.438246034659779,0.0,0.0,0.0,0.0,0.0,-6.637840891768783e-5
416,1,1.0042117292501966,-11.45096585064712,0.0,0.0,0.060629999999999996,0.01617,0.0,-6.638639904128233e-5
417,1,0.9981509621031177,-10.987449966020442,0.0,0.0,0.0,0.0,0.0,0.00013844030411386613
418,1,0.9971367343928766,-11.109915706259304,0.0,0.0,0.6362,0.1696,0.0,0.00013861736733986746
419,1,1.0134125481808105,-15.232382507709648,0.0,0.0,0.0,0.0,0.0,0.0018085229207634647
420,1,1.0133250586965623,-15.242830195323899,0.0,0.0,0.05226,0.01394,0.0,0.0018087382484673646
421,1,1.0129315433241142,-8.467390582419716,0.0,0.0,0.0,0.0,0.0,-2.2241488538603244e-5
422,1,1.0122231469525529,-8.548141292832367,0.0,0.0,0.4918,0.1311,0.0,-2.225609975569599e-5
423,1,0.9974728138252533,3.297276585545724,0.0,0.0,0.0,0.0,0.0,4.1147649886657565e-6
424,1,0.9947499491036779,2.9632899407578903,0.0,0.0,1.571,0.4189,0.0,4.137358344165187e-6
425,1,1.0187094450392808,-8.921194339960598,0.0,0.0,0.0,0.0,0.0,0.00017647357444369643
426,1,1.013424731130827,-11.221408524668762,0.0,0.0,0.0,0.0,0.0,0.00017032234062544334
427,1,1.0132128632996271,-11.24431959722198,0.0,0.0,0.14429999999999998,0.03849,0.0,0.00017036429698197295
428,1,1.0301439445430032,-5.486418564173694,0.0,0.0,0.0,0.0,0.0,-8.349629750151453e-7
429,1,1.0198067445456578,-7.288459037839902,0.0,0.0,0.0,0.0,0.0,1.3076036082128814e-5
430,2,1.0303920477479944,-5.452359701456829,0.01,0.0038399859288476266,0.0,0.0,0.0,0.0
431,2,1.03060336457181,-5.421738798569745,0.033,0.012669947924539232,0.0,0.0,0.0,0.0
432,2,1.0302886210171895,-5.4659078629717905,0.012,0.004609969459926196,0.0,0.0,0.0,0.0
433,2,1.0324464022080164,-5.159144732832329,0.067,0.025729991368308936,0.0,0.0,0.0,0.0
434,2,1.0305187489263659,-5.434143020438424,0.043,0.01650992910900157,0.0,0.0,0.0,0.0
435,2,1.0301439445430032,-5.486418564173694,0.0,0.0,0.0,0.0,0.0,0.0
436,2,1.0301439445430032,-5.486418564173694,0.0,0.0,0.0,0.0,0.0,0.0
437,2,1.0400467944398835,-3.547697578983355,1.97,0.576839243270921,0.0,0.0,0.0,0.0
438,2,1.040037342758181,-3.0517643411044606,1.97,0.44029098190079347,0.0,0.0,0.0,0.0
439,2,1.0400594281642364,-3.961183663295104,1.97,0.7201029164139539,0.0,0.0,0.0,0.0
440,1,1.016104382460812,-7.4630775248998455,0.0,0.0,0.0,0.0,0.0,0.00017251355552067122
441,1,1.0022375730697692,-11.525168670667554,0.0,0.0,0.0,0.0,0.0,0.0003743117317865308
442,2,1.016104382460812,-7.4630775248998455,0.0,0.0,0.0,0.0,0.0,0.0
443,2,1.016104382460812,-7.4630775248998455,0.0,0.0,0.0,0.0,0.0,0.0
444,2,1.016104382460812,-7.4630775248998455,0.0,0.0,0.0,0.0,0.0,0.0
445,1,1.0068811464185836,-9.444847702778617,0.0,0.0,0.0,0.0,0.0,0.00014778830838232815
446,1,1.0054341126473905,-9.615379800287704,0.0,0.0,0.8868,0.2365,0.0,0.0001480500909699309
447,1,1.0187040965474812,-7.945887419983101,0.0,0.0,0.0,0.0,0.0,0.00015033662247561981
448,1,1.01779523223184,-8.06319149159537,0.0,0.0,0.5756,0.1535,0.0,0.0001505165687626884
449,1,1.0113721960481965,-8.498765414037061,0.0,0.0,0.0,0.0,0.0,2.6497340036826547e-5
450,1,1.0113564854305466,-8.500768810820253,0.0,0.0,0.01122,0.00299,0.0,2.6497917886466938e-5
451,1,1.0113420089735796,-8.50254590278301,0.0,0.0,0.022109999999999998,0.0059,0.0,2.649843487417012e-5
452,1,1.0164703715815628,3.4034359392376126,0.0,0.0,0.1116,0.029769999999999998,0.0,-2.4433398016238603e-6
453,1,1.0306896123463696,-6.7641676577477305,0.0,0.0,0.0,0.0,0.0,-1.4242029175144576e-5
454,1,1.0119802174051047,-11.053485921403285,0.0,0.0,0.0,0.0,0.0,-2.9755670081296215e-5
455,2,1.0409089440574386,-6.19626218381327,0.6685,0.6507601598345663,0.0,0.0,0.0,0.0
456,2,1.040880604123073,-5.578165504952411,1.337,0.6377030507448384,0.0,0.0,0.0,0.0
457,1,1.0195163702728265,-7.170297852726024,0.0,0.0,0.0,0.0,0.0,-0.00010450525121202564
458,2,1.0187170612669276,-2.801890573043687,1.0959999999999999,0.0,0.0,0.0,0.0,0.0
459,1,1.0094032170768166,6.870022946975485,0.0,0.0,0.7447,0.1986,0.0,7.336755123714296e-7
460,1,1.0042112147683115,-9.434037071869739,0.0,0.0,0.2634,0.07025,0.0,4.8819217667001625e-5
461,1,1.0022238780781196,-9.398017424470378,0.0,0.0,0.9172,0.2446,0.0,0.00015962457512473617
462,1,1.0248715508455744,-7.543434718302056,0.0,0.0,0.0,0.0,0.0,0.00027155794627822615
463,2,1.0248715508455744,-7.543434718302056,0.0,0.0,0.0,0.0,0.0,0.0
464,1,1.0279245811127489,-5.756036541305143,0.0,0.0,0.0,0.0,0.0,3.057580941589321e-5
465,1,1.0254595258983152,-6.787204465911952,0.0,0.0,0.1252,0.03339,0.0,0.00012204002671502776
466,1,1.017949184267945,-7.57463189209095,0.0,0.0,0.4334,0.11560000000000001,0.0,1.2870486695816363e-5
467,1,1.0140143310398098,-6.677030148579132,0.0,0.0,0.00807,0.00215,0.0,0.0001260853616372067
468,1,1.0062156298962739,-8.150761446423681,0.0,0.0,0.03762,0.010029999999999999,0.0,0.00011298462798510217
469,1,0.9915567204884131,-11.652713684513449,0.0,0.0,1.285,0.3427,0.0,8.953566500250139e-5
470,1,1.0152160162532526,-6.279187301215738,0.0,0.0,0.42560000000000003,0.11349999999999999,0.0,0.00012279134391551323
471,1,1.0285592660130056,-5.442655313623694,0.0,0.0,0.0,0.0,0.0,1.562494702303283e-5
472,1,1.0217258465431107,-6.936421033754005,0.0,0.0,0.4971,0.1326,0.0,3.985385875894266e-5
473,1,1.0158707554930295,-5.868685967232383,0.0,0.0,0.00999,0.00266,0.0,0.00018874192838288313
474,1,1.001353544566781,-9.622906221506156,0.0,0.0,0.0,0.0,0.0,0.00012325736303150963
475,1,1.0162278352796017,-5.8112798202069085,0.0,0.0,0.0016200000000000001,0.00043,0.0,-9.192244407629422e-6
476,1,1.01206868919682,-11.298603758938278,0.0,0.0,0.5986,0.15960000000000002,0.0,-4.160505468492517e-5
477,1,1.0236953731902807,-8.700758438824623,0.0,0.0,0.0,0.0,0.0,0.00022437411180960794
478,1,1.018919526551484,-4.252410675141308,0.0,0.0,0.0,0.0,0.0,7.577456467292086e-5
479,1,1.0331436117689101,-5.406550469078976,0.0,0.0,0.0,0.0,0.0,-2.7924719333318296e-5
480,2,1.040458631406745,-3.538527790132715,0.56,0.10829692714022358,0.0,0.0,0.0,0.0
481,2,1.0405246423906707,-4.093902187673705,0.45,0.13616010808164072,0.0,0.0,0.0,0.0
482,2,1.0388798778068185,-4.6534948967745855,0.45,0.17279998054850754,0.0,0.0,0.0,0.0
483,2,1.0402869710482547,-4.130918792401323,0.24,0.06828553651003312,0.0,0.0,0.0,0.0
484,2,1.0391118708598028,-4.594640971789131,0.28,0.1074999676081738,0.0,0.0,0.0,0.0
485,1,1.008121179011966,-11.894717509354365,0.0,0.0,0.2788,0.07434,0.0,-2.794909896190601e-5
486,1,1.011122015097759,-11.02299487564387,0.0,0.0,0.6853,0.18280000000000002,0.0,-3.610376784886375e-5
487,1,1.0369258117696334,-15.078699094000422,0.0,0.0,0.1167,0.031110000000000002,0.0,0.0017772280434208128
488,1,0.9892979087402555,-11.849407085091617,0.0,0.0,0.9790000000000001,0.2611,0.0,2.2211987389903538e-5
489,1,1.0238945783856892,-11.480274066349828,0.0,0.0,0.0,0.0,0.0,0.0003266835400456646
490,1,0.9987181252755395,-12.853418838508647,0.0,0.0,0.2981,0.0795,0.0,0.00021622969627985457
491,1,1.0117202382580683,-12.960489642544703,0.0,0.0,1.195,0.3187,0.0,-3.632444047311075e-5
492,1,1.0044083167733604,-3.823231918594806,0.0,0.0,0.5954,0.1588,0.0,2.1017125492064666e-6
493,1,1.01648200513121,-6.496884409740898,0.0,0.0,0.04047,0.01079,0.0,0.00017821599163856294
494,2,1.01648200513121,-6.496884409740898,0.0,0.0,0.0,0.0,0.0,0.0
495,1,1.008932431597908,-8.85397449740769,0.0,0.0,0.7517,0.2005,0.0,3.1911089786781525e-5
496,1,1.0126370460952998,7.137792630161437,0.0,0.0,0.0,0.0,0.0,1.0162436042669038e-6
497,2,1.0269841963542468,9.258798337963764,0.6,0.2251125605691532,0.0,0.0,0.0,0.0
498,2,1.0209912907898613,8.295304034896386,0.18,0.06822195395611326,0.0,0.0,0.0,0.0
499,1,1.00060887812262,-13.201658691030827,0.0,0.0,1.2229999999999999,0.3262,0.0,-1.0001291567756285e-5
500,1,1.0230077801231128,-11.469036618168824,0.0,0.0,0.0,0.0,0.0,0.0004978828416793759
